/*--------------------------------*- C++ -*----------------------------------*\
  =========                 |
  \\      /  F ield         | OpenFOAM: The Open Source CFD Toolbox
   \\    /   O peration     | Website:  https://openfoam.org
    \\  /    A nd           | Version:  12
     \\/     M anipulation  |
\*---------------------------------------------------------------------------*/
FoamFile
{
    format      ascii;
    class       dictionary;
    location    "system";
    object      controlDict;
}
// * * * * * * * * * * * * * * * * * * * * * * * * * * * * * * * * * * * * * //

application     chemFoam; //chemFoam-PoliMi;

startFrom       latestTime;

startTime       0;

stopAt          endTime;

endTime         1; //10

deltaT          1e-8;

maxDeltaT       1e-3;

adjustTimeStep  on;

writeControl    adjustableRunTime;

writeInterval   1; //1e-1;

purgeWrite      0;

writeFormat     ascii;

writeCompression off;

timeFormat      general;

timePrecision   6;

runTimeModifiable yes;

DebugSwitches
{
    SolverPerformance   0;
}

// ************************************************************************* //
